micro_mg_num_steps  = 8         ! use shorter microphysical timestep
dust_emis_fact      = 0.55      ! minor tuning
clubb_gamma_coef    = 0.275D0   ! minor tuning
